OpenDSS/34Bus/ieee34-2_Power_elem_kVA.txt

CIRCUIT ELEMENT POWER FLOW

(Power Flow into element from indicated Bus)

Power Delivery Elements

  Bus     Phase     kW     +j   kvar         kVA         PF

ELEMENT = "Vsource.SOURCE"
SOURCEBUS     1      -689.3 +j   -157.7      707.1       0.9748
SOURCEBUS     2      -624.1 +j    -73.7      628.4       0.9931
SOURCEBUS     3      -729.4 +j    -59.3      731.8       0.9967
   TERMINAL TOTAL . -2042.7 +j   -290.7     2063.3       0.9900
SOURCEBUS     0         0.0 +j      0.0        0.0       1.0000
SOURCEBUS     0         0.0 +j      0.0        0.0       1.0000
SOURCEBUS     0         0.0 +j      0.0        0.0       1.0000
   TERMINAL TOTAL .     0.0 +j      0.0        0.0       1.0000

ELEMENT = "Transformer.SUBXF"
SOURCEBUS     1       689.3 +j    157.7      707.1       0.9748
SOURCEBUS     2       624.1 +j     73.7      628.4       0.9931
SOURCEBUS     3       729.4 +j     59.3      731.8       0.9967
SOURCEBUS     0         0.0 +j      0.0        0.0       1.0000
   TERMINAL TOTAL .  2042.7 +j    290.7     2063.3       0.9900
800           1      -759.1 +j   -171.9      778.3       0.9753
800           2      -666.6 +j    -90.2      672.7       0.9910
800           3      -617.0 +j    -28.6      617.7       0.9989
800           0         0.0 +j      0.0        0.0       1.0000
   TERMINAL TOTAL . -2042.7 +j   -290.7     2063.3       0.9900

ELEMENT = "Line.L1"
800           1       759.1 +j    171.9      778.3       0.9753
800           2       666.6 +j     90.2      672.7       0.9910
800           3       617.0 +j     28.6      617.7       0.9989
   TERMINAL TOTAL .  2042.7 +j    290.7     2063.3       0.9900
802           1      -757.4 +j   -171.5      776.6       0.9753
802           2      -665.7 +j    -90.0      671.7       0.9910
802           3      -616.2 +j    -28.7      616.9       0.9989
   TERMINAL TOTAL . -2039.3 +j   -290.2     2059.8       0.9900

ELEMENT = "Line.L2A"
802           1       757.4 +j    171.5      776.6       0.9753
802           2       665.7 +j     90.0      671.7       0.9910
802           3       616.2 +j     28.7      616.9       0.9989
   TERMINAL TOTAL .  2039.3 +j    290.2     2059.8       0.9900
MID806        1      -756.9 +j   -171.4      776.0       0.9753
MID806        2      -665.3 +j    -89.9      671.4       0.9910
MID806        3      -615.9 +j    -28.7      616.6       0.9989
   TERMINAL TOTAL . -2038.1 +j   -290.0     2058.6       0.9900

ELEMENT = "Line.L2B"
MID806        1       756.9 +j    171.4      776.0       0.9753
MID806        2       635.3 +j     74.9      639.7       0.9931
MID806        3       590.9 +j     14.7      591.1       0.9997
   TERMINAL TOTAL .  1983.1 +j    261.0     2000.2       0.9915
806           1      -756.3 +j   -171.3      775.5       0.9753
806           2      -635.0 +j    -74.8      639.4       0.9931
806           3      -590.6 +j    -14.7      590.8       0.9997
   TERMINAL TOTAL . -1982.0 +j   -260.8     1999.1       0.9915

ELEMENT = "Line.L3"
806           1       756.3 +j    171.3      775.5       0.9753
806           2       635.0 +j     74.8      639.4       0.9931
806           3       590.6 +j     14.7      590.8       0.9997
   TERMINAL TOTAL .  1982.0 +j    260.8     1999.1       0.9915
808           1      -735.6 +j   -166.2      754.2       0.9754
808           2      -624.3 +j    -72.7      628.5       0.9933
808           3      -580.8 +j    -15.9      581.0       0.9996
   TERMINAL TOTAL . -1940.7 +j   -254.9     1957.3       0.9915

ELEMENT = "Line.L4A"
808           2        16.5 +j      7.2       18.0       0.9159
   TERMINAL TOTAL .    16.5 +j      7.2       18.0       0.9159
MID810        2       -16.5 +j     -7.7       18.2       0.9053
   TERMINAL TOTAL .   -16.5 +j     -7.7       18.2       0.9053

ELEMENT = "Line.L4B"
MID810        2         0.0 +j     -0.5        0.5      -0.0000
   TERMINAL TOTAL .     0.0 +j     -0.5        0.5      -0.0000
810           2         0.0 +j      0.0        0.0       0.5143
   TERMINAL TOTAL .     0.0 +j      0.0        0.0       0.5143

ELEMENT = "Line.L5"
808           1       735.6 +j    166.2      754.2       0.9754
808           2       607.8 +j     65.5      611.3       0.9942
808           3       580.8 +j     15.9      581.0       0.9996
   TERMINAL TOTAL .  1924.2 +j    247.6     1940.1       0.9918
812           1      -711.5 +j   -159.3      729.1       0.9758
812           2      -596.2 +j    -63.5      599.5       0.9944
812           3      -569.0 +j    -16.9      569.2       0.9996
   TERMINAL TOTAL . -1876.7 +j   -239.8     1891.9       0.9919

ELEMENT = "Line.L6"
812           1       711.5 +j    159.3      729.1       0.9758
812           2       596.2 +j     63.5      599.5       0.9944
812           3       569.0 +j     16.9      569.2       0.9996
   TERMINAL TOTAL .  1876.7 +j    239.8     1891.9       0.9919
814           1      -692.3 +j   -153.2      709.0       0.9764
814           2      -587.0 +j    -61.7      590.3       0.9945
814           3      -559.6 +j    -17.5      559.9       0.9995
   TERMINAL TOTAL . -1838.9 +j   -232.4     1853.5       0.9921

ELEMENT = "Line.L7"
814R          1       692.3 +j    153.2      709.0       0.9764
814R          2       587.0 +j     61.6      590.3       0.9945
814R          3       559.6 +j     17.5      559.9       0.9995
   TERMINAL TOTAL .  1838.9 +j    232.3     1853.5       0.9921
850           1      -692.3 +j   -153.2      709.0       0.9764
850           2      -587.0 +j    -61.6      590.2       0.9945
850           3      -559.6 +j    -17.5      559.9       0.9995
   TERMINAL TOTAL . -1838.9 +j   -232.3     1853.5       0.9921

ELEMENT = "Line.L24"
850           1       692.3 +j    153.2      709.0       0.9764
850           2       587.0 +j     61.6      590.2       0.9945
850           3       559.6 +j     17.5      559.9       0.9995
   TERMINAL TOTAL .  1838.9 +j    232.3     1853.5       0.9921
816           1      -692.0 +j   -153.2      708.8       0.9764
816           2      -586.9 +j    -61.6      590.1       0.9945
816           3      -559.4 +j    -17.5      559.7       0.9995
   TERMINAL TOTAL . -1838.3 +j   -232.3     1853.0       0.9921

ELEMENT = "Line.L8"
816           1       173.4 +j     78.8      190.4       0.9104
   TERMINAL TOTAL .   173.4 +j     78.8      190.4       0.9104
818           1      -173.2 +j    -79.0      190.4       0.9099
   TERMINAL TOTAL .  -173.2 +j    -79.0      190.4       0.9099

ELEMENT = "Line.L9A"
816           1       518.6 +j     74.4      523.9       0.9899
816           2       586.9 +j     61.6      590.1       0.9945
816           3       559.4 +j     17.5      559.7       0.9995
   TERMINAL TOTAL .  1665.0 +j    153.5     1672.0       0.9958
MID824        1      -516.5 +j    -74.8      521.9       0.9897
MID824        2      -584.1 +j    -61.4      587.4       0.9945
MID824        3      -557.2 +j    -17.3      557.5       0.9995
   TERMINAL TOTAL . -1657.8 +j   -153.6     1664.9       0.9957

ELEMENT = "Line.L9B"
MID824        1       516.5 +j     74.8      521.9       0.9897
MID824        2       581.0 +j     61.9      584.3       0.9944
MID824        3       555.3 +j     14.9      555.5       0.9996
   TERMINAL TOTAL .  1652.8 +j    151.6     1659.7       0.9958
824           1      -514.3 +j    -75.3      519.8       0.9895
824           2      -578.3 +j    -61.7      581.6       0.9944
824           3      -553.1 +j    -14.7      553.3       0.9996
   TERMINAL TOTAL . -1645.7 +j   -151.7     1652.7       0.9958

ELEMENT = "Line.L10A"
818           1       173.2 +j     79.0      190.4       0.9099
   TERMINAL TOTAL .   173.2 +j     79.0      190.4       0.9099
MID820        1      -171.0 +j    -81.9      189.6       0.9020
   TERMINAL TOTAL .  -171.0 +j    -81.9      189.6       0.9020

ELEMENT = "Line.L10B"
MID820        1       136.8 +j     64.8      151.4       0.9038
   TERMINAL TOTAL .   136.8 +j     64.8      151.4       0.9038
820           1      -135.4 +j    -68.0      151.5       0.8937
   TERMINAL TOTAL .  -135.4 +j    -68.0      151.5       0.8937

ELEMENT = "Line.L11A"
820           1       135.4 +j     68.0      151.5       0.8937
   TERMINAL TOTAL .   135.4 +j     68.0      151.5       0.8937
MID822        1      -135.0 +j    -68.9      151.6       0.8907
   TERMINAL TOTAL .  -135.0 +j    -68.9      151.6       0.8907

ELEMENT = "Line.L11B"
MID822        1         0.0 +j     -1.1        1.1      -0.0000
   TERMINAL TOTAL .     0.0 +j     -1.1        1.1      -0.0000
822           1         0.0 +j      0.0        0.0       0.0408
   TERMINAL TOTAL .     0.0 +j      0.0        0.0       0.0408

ELEMENT = "Line.L12A"
824           2        40.6 +j     19.8       45.2       0.8990
   TERMINAL TOTAL .    40.6 +j     19.8       45.2       0.8990
MID826        2       -40.6 +j    -20.1       45.3       0.8967
   TERMINAL TOTAL .   -40.6 +j    -20.1       45.3       0.8967

ELEMENT = "Line.L12B"
MID826        2         0.0 +j     -0.3        0.3      -0.0000
   TERMINAL TOTAL .     0.0 +j     -0.3        0.3      -0.0000
826           2         0.0 +j      0.0        0.0       1.0000
   TERMINAL TOTAL .     0.0 +j      0.0        0.0       1.0000

ELEMENT = "Line.L13A"
824           1       514.3 +j     75.3      519.8       0.9895
824           2       537.7 +j     41.9      539.3       0.9970
824           3       553.1 +j     14.7      553.3       0.9996
   TERMINAL TOTAL .  1605.1 +j    131.9     1610.5       0.9966
MID828        1      -514.2 +j    -75.3      519.6       0.9894
MID828        2      -537.5 +j    -41.9      539.1       0.9970
MID828        3      -552.9 +j    -14.7      553.1       0.9996
   TERMINAL TOTAL . -1604.5 +j   -131.9     1609.9       0.9966

ELEMENT = "Line.L13B"
MID828        1       514.2 +j     75.3      519.6       0.9894
MID828        2       537.5 +j     41.9      539.1       0.9970
MID828        3       548.9 +j     12.7      549.0       0.9997
   TERMINAL TOTAL .  1600.5 +j    129.9     1605.8       0.9967
828           1      -514.0 +j    -75.3      519.5       0.9894
828           2      -537.3 +j    -41.9      538.9       0.9970
828           3      -548.7 +j    -12.7      548.9       0.9997
   TERMINAL TOTAL . -1600.0 +j   -129.9     1605.2       0.9967

ELEMENT = "Line.L14A"
828           1       514.0 +j     75.3      519.5       0.9894
828           2       537.3 +j     41.9      538.9       0.9970
828           3       548.7 +j     12.7      548.9       0.9997
   TERMINAL TOTAL .  1600.0 +j    129.9     1605.2       0.9967
MID830        1      -509.7 +j    -76.1      515.3       0.9890
MID830        2      -532.7 +j    -41.9      534.3       0.9969
MID830        3      -544.2 +j    -12.4      544.4       0.9997
   TERMINAL TOTAL . -1586.6 +j   -130.4     1592.0       0.9966

ELEMENT = "Line.L14B"
MID830        1       502.7 +j     73.1      508.0       0.9896
MID830        2       532.7 +j     41.9      534.3       0.9969
MID830        3       544.2 +j     12.4      544.4       0.9997
   TERMINAL TOTAL .  1579.6 +j    127.4     1584.8       0.9968
830           1      -498.5 +j    -73.8      504.0       0.9892
830           2      -528.1 +j    -41.9      529.7       0.9969
830           3      -539.8 +j    -12.1      539.9       0.9997
   TERMINAL TOTAL . -1566.4 +j   -127.9     1571.6       0.9967

ELEMENT = "Line.L15"
830           1       482.8 +j     62.2      486.8       0.9918
830           2       518.1 +j     37.0      519.4       0.9975
830           3       521.2 +j      9.0      521.2       0.9999
   TERMINAL TOTAL .  1522.0 +j    108.2     1525.9       0.9975
854           1      -482.6 +j    -62.2      486.6       0.9918
854           2      -517.9 +j    -37.0      519.2       0.9975
854           3      -520.9 +j     -9.0      521.0       0.9999
   TERMINAL TOTAL . -1521.4 +j   -108.2     1525.2       0.9975

ELEMENT = "Line.L16A"
832           1       316.8 +j    -19.9      317.4      -0.9980
832           2       345.2 +j    -44.2      348.0      -0.9919
832           3       354.6 +j    -75.5      362.5      -0.9781
   TERMINAL TOTAL .  1016.6 +j   -139.6     1026.1      -0.9907
MID858        1      -316.4 +j     19.4      317.0      -0.9981
MID858        2      -344.7 +j     43.8      347.5      -0.9920
MID858        3      -354.2 +j     75.2      362.1      -0.9782
   TERMINAL TOTAL . -1015.3 +j    138.4     1024.7      -0.9908

ELEMENT = "Line.L16B"
MID858        1       309.5 +j    -22.3      310.3      -0.9974
MID858        2       340.5 +j    -47.5      343.8      -0.9904
MID858        3       349.3 +j    -76.1      357.5      -0.9771
   TERMINAL TOTAL .   999.2 +j   -145.9     1009.8      -0.9895
858           1      -309.2 +j     21.8      309.9      -0.9975
858           2      -340.0 +j     47.1      343.2      -0.9905
858           3      -348.9 +j     75.8      357.0      -0.9772
   TERMINAL TOTAL .  -998.0 +j    144.7     1008.4      -0.9897

ELEMENT = "Line.L29A"
858           1       307.2 +j    -22.5      308.0      -0.9973
858           2       340.0 +j    -47.1      343.2      -0.9905
858           3       348.9 +j    -75.8      357.0      -0.9772
   TERMINAL TOTAL .   996.0 +j   -145.4     1006.6      -0.9895
MID834        1      -306.8 +j     21.9      307.6      -0.9975
MID834        2      -339.4 +j     46.6      342.6      -0.9907
MID834        3      -348.4 +j     75.4      356.5      -0.9773
   TERMINAL TOTAL .  -994.6 +j    144.0     1004.9      -0.9897

ELEMENT = "Line.L29B"
MID834        1       299.8 +j    -29.1      301.2      -0.9953
MID834        2       328.1 +j    -48.4      331.7      -0.9893
MID834        3       334.7 +j    -83.5      344.9      -0.9702
   TERMINAL TOTAL .   962.6 +j   -161.0      975.9      -0.9863
834           1      -299.4 +j     28.4      300.8      -0.9955
834           2      -327.6 +j     47.9      331.1      -0.9895
834           3      -334.2 +j     83.1      344.4      -0.9704
   TERMINAL TOTAL .  -961.2 +j    159.5      974.4      -0.9865

ELEMENT = "Line.L18"
834           1       172.4 +j   -134.3      218.5      -0.7888
834           2       211.5 +j   -116.1      241.3      -0.8766
834           3       183.7 +j   -128.4      224.1      -0.8196
   TERMINAL TOTAL .   567.6 +j   -378.8      682.4      -0.8318
842           1      -172.4 +j    134.3      218.5      -0.7889
842           2      -211.5 +j    116.0      241.2      -0.8767
842           3      -183.7 +j    128.4      224.1      -0.8197
   TERMINAL TOTAL .  -567.6 +j    378.7      682.3      -0.8319

ELEMENT = "Line.L19A"
836           1        21.2 +j      6.4       22.2       0.9575
836           2        30.5 +j     16.0       34.5       0.8863
836           3        17.3 +j     19.3       25.9       0.6680
   TERMINAL TOTAL .    69.0 +j     41.6       80.6       0.8565
MID840        1       -21.2 +j     -6.5       22.2       0.9561
MID840        2       -30.5 +j    -16.1       34.5       0.8849
MID840        3       -17.3 +j    -19.4       26.0       0.6662
   TERMINAL TOTAL .   -69.0 +j    -41.9       80.8       0.8547

ELEMENT = "Line.L19B"
MID840        1         9.3 +j      7.1       11.7       0.7938
MID840        2         9.3 +j      7.1       11.7       0.7941
MID840        3         9.3 +j      7.1       11.7       0.7932
   TERMINAL TOTAL .    27.8 +j     21.3       35.0       0.7937
840           1        -9.3 +j     -7.2       11.7       0.7894
840           2        -9.3 +j     -7.2       11.7       0.7894
840           3        -9.3 +j     -7.2       11.8       0.7894
   TERMINAL TOTAL .   -27.8 +j    -21.6       35.2       0.7894

ELEMENT = "Line.L21A"
842           1       172.4 +j   -134.3      218.5      -0.7889
842           2       211.5 +j   -116.0      241.2      -0.8767
842           3       183.7 +j   -128.4      224.1      -0.8197
   TERMINAL TOTAL .   567.6 +j   -378.7      682.3      -0.8319
MID844        1      -172.3 +j    134.1      218.4      -0.7892
MID844        2      -211.4 +j    115.9      241.1      -0.8769
MID844        3      -183.6 +j    128.2      224.0      -0.8199
   TERMINAL TOTAL .  -567.4 +j    378.2      681.9      -0.8321

ELEMENT = "Line.L21B"
MID844        1       163.3 +j   -139.1      214.5      -0.7613
MID844        2       211.4 +j   -115.9      241.1      -0.8769
MID844        3       183.6 +j   -128.2      224.0      -0.8199
   TERMINAL TOTAL .   558.4 +j   -383.2      677.3      -0.8245
844           1      -163.3 +j    138.9      214.4      -0.7616
844           2      -211.4 +j    115.8      241.0      -0.8771
844           3      -183.6 +j    128.1      223.9      -0.8201
   TERMINAL TOTAL .  -558.3 +j    382.8      676.9      -0.8247

ELEMENT = "Line.L22A"
844           1        19.9 +j   -144.3      145.6      -0.1366
844           2        68.4 +j   -121.1      139.0      -0.4917
844           3        40.1 +j   -133.4      139.3      -0.2879
   TERMINAL TOTAL .   128.4 +j   -398.7      418.9      -0.3064
MID846        1       -19.9 +j    143.8      145.2      -0.1369
MID846        2       -68.3 +j    120.6      138.6      -0.4924
MID846        3       -40.1 +j    133.0      138.9      -0.2885
   TERMINAL TOTAL .  -128.2 +j    397.5      417.6      -0.3070

ELEMENT = "Line.L22B"
MID846        1        19.9 +j   -143.8      145.2      -0.1369
MID846        2        43.3 +j   -132.6      139.5      -0.3101
MID846        3        20.1 +j   -144.0      145.4      -0.1381
   TERMINAL TOTAL .    83.2 +j   -420.5      428.6      -0.1941
846           1       -19.8 +j    143.3      144.7      -0.1372
846           2       -43.1 +j    132.2      139.1      -0.3103
846           3       -20.0 +j    143.7      145.1      -0.1382
   TERMINAL TOTAL .   -83.0 +j    419.2      427.4      -0.1943

ELEMENT = "Line.L23A"
846           1        19.8 +j   -143.3      144.7      -0.1372
846           2        43.1 +j   -132.2      139.1      -0.3103
846           3        20.0 +j   -143.7      145.1      -0.1382
   TERMINAL TOTAL .    83.0 +j   -419.2      427.4      -0.1943
MID848        1       -19.8 +j    143.3      144.6      -0.1372
MID848        2       -43.1 +j    132.1      139.0      -0.3103
MID848        3       -20.0 +j    143.6      145.0      -0.1382
   TERMINAL TOTAL .   -83.0 +j    419.0      427.2      -0.1944

ELEMENT = "Line.L23B"
MID848        1        19.8 +j   -143.3      144.6      -0.1372
MID848        2        20.1 +j   -143.1      144.6      -0.1393
MID848        3        20.0 +j   -143.6      145.0      -0.1382
   TERMINAL TOTAL .    60.0 +j   -430.0      434.2      -0.1382
848           1       -19.8 +j    143.2      144.6      -0.1372
848           2       -20.1 +j    143.1      144.5      -0.1392
848           3       -20.0 +j    143.5      144.9      -0.1383
   TERMINAL TOTAL .   -60.0 +j    429.8      434.0      -0.1382

ELEMENT = "Line.L26A"
854           2         4.0 +j     -1.8        4.4      -0.9084
   TERMINAL TOTAL .     4.0 +j     -1.8        4.4      -0.9084
MID856        2        -4.0 +j     -0.1        4.0       0.9998
   TERMINAL TOTAL .    -4.0 +j     -0.1        4.0       0.9998

ELEMENT = "Line.L26B"
MID856        2         0.0 +j     -1.9        1.9      -0.0000
   TERMINAL TOTAL .     0.0 +j     -1.9        1.9      -0.0000
856           2        -0.0 +j     -0.0        0.0       0.8658
   TERMINAL TOTAL .    -0.0 +j     -0.0        0.0       0.8658

ELEMENT = "Line.L27"
854           1       482.6 +j     62.2      486.6       0.9918
854           2       513.9 +j     38.9      515.3       0.9972
854           3       520.9 +j      9.0      521.0       0.9999
   TERMINAL TOTAL .  1517.4 +j    110.0     1521.4       0.9974
852           1      -468.6 +j    -64.9      473.1       0.9905
852           2      -498.1 +j    -39.1      499.6       0.9969
852           3      -505.9 +j     -8.1      506.0       0.9999
   TERMINAL TOTAL . -1472.6 +j   -112.1     1476.9       0.9971

ELEMENT = "Line.L25"
852R          1       468.6 +j     64.9      473.1       0.9905
852R          2       498.1 +j     39.0      499.6       0.9969
852R          3       505.9 +j      8.1      506.0       0.9999
   TERMINAL TOTAL .  1472.6 +j    112.1     1476.9       0.9971
832           1      -468.6 +j    -64.9      473.1       0.9905
832           2      -498.1 +j    -39.0      499.6       0.9969
832           3      -505.9 +j     -8.1      506.0       0.9999
   TERMINAL TOTAL . -1472.6 +j   -112.1     1476.8       0.9971

ELEMENT = "Transformer.XFM1"
832           1       151.8 +j     84.8      173.9       0.8732
832           2       152.9 +j     83.2      174.1       0.8783
832           3       151.3 +j     83.7      172.9       0.8751
832           0         0.0 +j      0.0        0.0       1.0000
   TERMINAL TOTAL .   456.0 +j    251.6      520.8       0.8756
888           1      -148.6 +j    -77.9      167.8       0.8858
888           2      -149.6 +j    -76.3      168.0       0.8909
888           3      -148.2 +j    -76.8      166.9       0.8877
888           0         0.0 +j      0.0        0.0       1.0000
   TERMINAL TOTAL .  -446.4 +j   -231.0      502.6       0.8882

ELEMENT = "Line.L28A"
858           1         2.0 +j      0.7        2.1       0.9418
   TERMINAL TOTAL .     2.0 +j      0.7        2.1       0.9418
MID864        1        -2.0 +j     -0.9        2.2       0.9192
   TERMINAL TOTAL .    -2.0 +j     -0.9        2.2       0.9192

ELEMENT = "Line.L28B"
MID864        1         0.0 +j     -0.1        0.1      -0.0000
   TERMINAL TOTAL .     0.0 +j     -0.1        0.1      -0.0000
864           1         0.0 +j     -0.0        0.0      -0.9984
   TERMINAL TOTAL .     0.0 +j     -0.0        0.0      -0.9984

ELEMENT = "Line.L17A"
834           1       127.0 +j    105.9      165.4       0.7682
834           2       116.0 +j     68.2      134.6       0.8621
834           3       150.5 +j     45.3      157.2       0.9576
   TERMINAL TOTAL .   393.6 +j    219.3      450.6       0.8735
MID860        1      -127.0 +j   -106.1      165.5       0.7674
MID860        2      -116.0 +j    -68.4      134.7       0.8613
MID860        3      -150.5 +j    -45.5      157.2       0.9572
   TERMINAL TOTAL .  -393.5 +j   -220.0      450.8       0.8728

ELEMENT = "Line.L17B"
MID860        1        75.0 +j     43.7       86.8       0.8640
MID860        2        96.2 +j     60.2      113.5       0.8478
MID860        3        68.0 +j     39.0       78.3       0.8674
   TERMINAL TOTAL .   239.1 +j    142.9      278.5       0.8585
860           1       -75.0 +j    -43.9       86.9       0.8627
860           2       -96.2 +j    -60.4      113.6       0.8467
860           3       -68.0 +j    -39.2       78.5       0.8661
   TERMINAL TOTAL .  -239.1 +j   -143.6      278.9       0.8573

ELEMENT = "Line.L30A"
860           1        55.0 +j     27.9       61.7       0.8914
860           2        76.2 +j     44.4       88.2       0.8638
860           3        48.0 +j     23.2       53.3       0.9001
   TERMINAL TOTAL .   179.1 +j     95.6      203.0       0.8822
MID836        1       -55.0 +j    -28.3       61.8       0.8892
MID836        2       -76.1 +j    -44.7       88.3       0.8621
MID836        3       -48.0 +j    -23.5       53.4       0.8979
   TERMINAL TOTAL .  -179.1 +j    -96.6      203.4       0.8802

ELEMENT = "Line.L30B"
MID836        1        21.2 +j      6.0       22.0       0.9626
MID836        2        58.6 +j     28.7       65.3       0.8981
MID836        3        17.3 +j     18.9       25.6       0.6747
   TERMINAL TOTAL .    97.1 +j     53.6      110.9       0.8756
836           1       -21.2 +j     -6.3       22.1       0.9584
836           2       -58.6 +j    -29.0       65.4       0.8960
836           3       -17.3 +j    -19.2       25.8       0.6691
   TERMINAL TOTAL .   -97.0 +j    -54.5      111.3       0.8718

ELEMENT = "Line.L20"
836           1        -0.0 +j     -0.1        0.1       0.0643
836           2        28.0 +j     13.1       30.9       0.9064
836           3        -0.0 +j     -0.1        0.1       0.0553
   TERMINAL TOTAL .    28.0 +j     12.9       30.8       0.9080
862           1         0.0 +j     -0.0        0.0      -0.9836
862           2       -28.0 +j    -13.1       30.9       0.9055
862           3         0.0 +j     -0.0        0.0      -0.9823
   TERMINAL TOTAL .   -28.0 +j    -13.1       30.9       0.9055

ELEMENT = "Line.L31A"
862           2        28.0 +j     13.1       30.9       0.9055
   TERMINAL TOTAL .    28.0 +j     13.1       30.9       0.9055
MID838        2       -28.0 +j    -13.6       31.1       0.9000
   TERMINAL TOTAL .   -28.0 +j    -13.6       31.1       0.9000

ELEMENT = "Line.L31B"
MID838        2         0.0 +j     -0.4        0.4      -0.0000
   TERMINAL TOTAL .     0.0 +j     -0.4        0.4      -0.0000
838           2        -0.0 +j     -0.0        0.0       0.1361
   TERMINAL TOTAL .    -0.0 +j     -0.0        0.0       0.1361

ELEMENT = "Line.L32"
888           1       148.6 +j     77.9      167.8       0.8858
888           2       149.6 +j     76.3      168.0       0.8909
888           3       148.2 +j     76.8      166.9       0.8877
   TERMINAL TOTAL .   446.4 +j    231.0      502.6       0.8882
890           1      -137.0 +j    -70.1      153.9       0.8901
890           2      -139.7 +j    -68.1      155.4       0.8989
890           3      -137.0 +j    -68.6      153.2       0.8942
   TERMINAL TOTAL .  -413.7 +j   -206.8      462.5       0.8944

ELEMENT = "Capacitor.C844"
844           1        -0.0 +j   -106.2      106.2       0.0000
844           2         0.0 +j   -105.9      105.9      -0.0000
844           3         0.0 +j   -106.3      106.3       1.0000
   TERMINAL TOTAL .     0.0 +j   -318.4      318.4      -0.0000
844           0         0.0 +j      0.0        0.0       1.0000
844           0         0.0 +j      0.0        0.0       1.0000
844           0         0.0 +j      0.0        0.0       1.0000
   TERMINAL TOTAL .     0.0 +j      0.0        0.0       1.0000

ELEMENT = "Capacitor.C848"
848           1         0.0 +j   -159.4      159.4       1.0000
848           2        -0.0 +j   -158.9      158.9       0.0000
848           3         0.0 +j   -159.5      159.5      -0.0000
   TERMINAL TOTAL .    -0.0 +j   -477.8      477.8       0.0000
848           0         0.0 +j      0.0        0.0       1.0000
848           0         0.0 +j      0.0        0.0       1.0000
848           0         0.0 +j      0.0        0.0       1.0000
   TERMINAL TOTAL .     0.0 +j      0.0        0.0       1.0000

ELEMENT = "Transformer.REG1A"
814           1       692.3 +j    153.2      709.0       0.9764
814           0         0.0 +j      0.0        0.0       1.0000
   TERMINAL TOTAL .   692.3 +j    153.2      709.0       0.9764
814R          1      -692.3 +j   -153.2      709.0       0.9764
814R          0         0.0 +j      0.0        0.0       1.0000
   TERMINAL TOTAL .  -692.3 +j   -153.2      709.0       0.9764

ELEMENT = "Transformer.REG1B"
814           2       587.0 +j     61.7      590.3       0.9945
814           0         0.0 +j      0.0        0.0       1.0000
   TERMINAL TOTAL .   587.0 +j     61.7      590.3       0.9945
814R          2      -587.0 +j    -61.6      590.3       0.9945
814R          0         0.0 +j      0.0        0.0       1.0000
   TERMINAL TOTAL .  -587.0 +j    -61.6      590.3       0.9945

ELEMENT = "Transformer.REG1C"
814           3       559.6 +j     17.5      559.9       0.9995
814           0         0.0 +j      0.0        0.0       1.0000
   TERMINAL TOTAL .   559.6 +j     17.5      559.9       0.9995
814R          3      -559.6 +j    -17.5      559.9       0.9995
814R          0         0.0 +j      0.0        0.0       1.0000
   TERMINAL TOTAL .  -559.6 +j    -17.5      559.9       0.9995

ELEMENT = "Transformer.REG2A"
852           1       468.6 +j     64.9      473.1       0.9905
852           0         0.0 +j      0.0        0.0       1.0000
   TERMINAL TOTAL .   468.6 +j     64.9      473.1       0.9905
852R          1      -468.6 +j    -64.9      473.1       0.9905
852R          0         0.0 +j      0.0        0.0       1.0000
   TERMINAL TOTAL .  -468.6 +j    -64.9      473.1       0.9905

ELEMENT = "Transformer.REG2B"
852           2       498.1 +j     39.1      499.6       0.9969
852           0         0.0 +j      0.0        0.0       1.0000
   TERMINAL TOTAL .   498.1 +j     39.1      499.6       0.9969
852R          2      -498.1 +j    -39.0      499.6       0.9969
852R          0         0.0 +j      0.0        0.0       1.0000
   TERMINAL TOTAL .  -498.1 +j    -39.0      499.6       0.9969

ELEMENT = "Transformer.REG2C"
852           3       505.9 +j      8.1      506.0       0.9999
852           0         0.0 +j      0.0        0.0       1.0000
   TERMINAL TOTAL .   505.9 +j      8.1      506.0       0.9999
852R          3      -505.9 +j     -8.1      506.0       0.9999
852R          0         0.0 +j      0.0        0.0       1.0000
   TERMINAL TOTAL .  -505.9 +j     -8.1      506.0       0.9999

= = = = = = = = = = = = = = = = = = =  = = = = = = = = = = =  = =

Power Conversion Elements

  Bus     Phase     kW   +j  kvar         kVA         PF

ELEMENT = "Load.S860"
860           1      20.0 +j   16.0       25.6       0.7809
860           2      20.0 +j   16.0       25.6       0.7809
860           3      20.0 +j   16.0       25.6       0.7809
860           0       0.0 +j    0.0        0.0       1.0000
  TERMINAL TOTAL  .    60.0 +j     48.0       76.8       0.7809

ELEMENT = "Load.S840"
840           1       9.3 +j    7.2       11.7       0.7894
840           2       9.3 +j    7.2       11.7       0.7894
840           3       9.3 +j    7.2       11.8       0.7894
840           0       0.0 +j    0.0        0.0       1.0000
  TERMINAL TOTAL  .    27.8 +j     21.6       35.2       0.7894

ELEMENT = "Load.S844"
844           1     143.4 +j  111.5      181.7       0.7894
844           2     143.0 +j  111.2      181.2       0.7894
844           3     143.5 +j  111.6      181.8       0.7894
844           0       0.0 +j    0.0        0.0       1.0000
  TERMINAL TOTAL  .   429.9 +j    334.4      544.6       0.7894

ELEMENT = "Load.S848"
848           1      19.8 +j   16.2       25.6       0.7743
848           2      20.1 +j   15.8       25.6       0.7865
848           3      20.0 +j   16.0       25.6       0.7818
  TERMINAL TOTAL  .    60.0 +j     48.0       76.8       0.7809

ELEMENT = "Load.S830A"
830           1       6.4 +j   -0.4        6.4      -0.9984
830           2       3.6 +j    5.3        6.4       0.5585
  TERMINAL TOTAL  .    10.0 +j      5.0       11.1       0.8944

ELEMENT = "Load.S830B"
830           2       6.4 +j   -0.4        6.4      -0.9980
830           3       3.5 +j    5.3        6.4       0.5454
  TERMINAL TOTAL  .     9.9 +j      4.9       11.0       0.8944

ELEMENT = "Load.S830C"
830           3      15.2 +j   -2.2       15.3      -0.9898
830           1       9.4 +j   12.0       15.2       0.6165
  TERMINAL TOTAL  .    24.6 +j      9.8       26.4       0.9285

ELEMENT = "Load.S890"
890           1     137.0 +j   70.1      153.9       0.8901
890           2     139.7 +j   68.1      155.4       0.8989
890           3     137.0 +j   68.6      153.2       0.8942
  TERMINAL TOTAL  .   413.7 +j    206.8      462.5       0.8944

ELEMENT = "Load.D802_806B"
MID806        2      30.0 +j   15.0       33.5       0.8944
MID806        0       0.0 +j    0.0        0.0       1.0000
  TERMINAL TOTAL  .    30.0 +j     15.0       33.5       0.8944

ELEMENT = "Load.D802_806C"
MID806        3      25.0 +j   14.0       28.7       0.8725
MID806        0       0.0 +j    0.0        0.0       1.0000
  TERMINAL TOTAL  .    25.0 +j     14.0       28.7       0.8725

ELEMENT = "Load.D808_810B"
MID810        2      16.5 +j    8.2       18.4       0.8944
MID810        0       0.0 +j    0.0        0.0       1.0000
  TERMINAL TOTAL  .    16.5 +j      8.2       18.4       0.8944

ELEMENT = "Load.D818_820A"
MID820        1      34.2 +j   17.1       38.3       0.8944
MID820        0       0.0 +j    0.0        0.0       1.0000
  TERMINAL TOTAL  .    34.2 +j     17.1       38.3       0.8944

ELEMENT = "Load.D820_822A"
MID822        1     135.0 +j   70.0      152.1       0.8878
MID822        0       0.0 +j    0.0        0.0       1.0000
  TERMINAL TOTAL  .   135.0 +j     70.0      152.1       0.8878

ELEMENT = "Load.D816_824B"
MID824        2       3.1 +j   -0.5        3.2      -0.9891
MID824        3       1.9 +j    2.5        3.2       0.6125
  TERMINAL TOTAL  .     5.1 +j      2.0        5.5       0.9285

ELEMENT = "Load.D824_826B"
MID826        2      40.6 +j   20.3       45.4       0.8944
MID826        0       0.0 +j    0.0        0.0       1.0000
  TERMINAL TOTAL  .    40.6 +j     20.3       45.4       0.8944

ELEMENT = "Load.D824_828C"
MID828        3       4.0 +j    2.0        4.5       0.8944
MID828        0       0.0 +j    0.0        0.0       1.0000
  TERMINAL TOTAL  .     4.0 +j      2.0        4.5       0.8944

ELEMENT = "Load.D828_830A"
MID830        1       7.0 +j    3.0        7.6       0.9191
MID830        0       0.0 +j    0.0        0.0       1.0000
  TERMINAL TOTAL  .     7.0 +j      3.0        7.6       0.9191

ELEMENT = "Load.D854_856B"
MID856        2       4.0 +j    2.0        4.5       0.8944
MID856        0       0.0 +j    0.0        0.0       1.0000
  TERMINAL TOTAL  .     4.0 +j      2.0        4.5       0.8944

ELEMENT = "Load.D832_858A"
MID858        1       4.7 +j   -0.5        4.7      -0.9941
MID858        2       2.9 +j    3.8        4.7       0.6062
  TERMINAL TOTAL  .     7.6 +j      3.2        8.2       0.9191

ELEMENT = "Load.D832_858B"
MID858        2       1.4 +j   -0.1        1.4      -0.9979
MID858        3       0.8 +j    1.2        1.4       0.5478
  TERMINAL TOTAL  .     2.1 +j      1.1        2.4       0.8944

ELEMENT = "Load.D832_858C"
MID858        3       4.1 +j   -0.3        4.1      -0.9979
MID858        1       2.3 +j    3.5        4.1       0.5467
  TERMINAL TOTAL  .     6.4 +j      3.2        7.1       0.8944

ELEMENT = "Load.D858_864A"
MID864        1       2.0 +j    1.0        2.2       0.8944
MID864        0       0.0 +j    0.0        0.0       1.0000
  TERMINAL TOTAL  .     2.0 +j      1.0        2.2       0.8944

ELEMENT = "Load.D858_834A"
MID834        1       2.6 +j   -0.1        2.6      -0.9988
MID834        2       1.4 +j    2.1        2.6       0.5587
  TERMINAL TOTAL  .     4.0 +j      2.0        4.5       0.8944

ELEMENT = "Load.D858_834B"
MID834        2       9.8 +j   -0.4        9.8      -0.9993
MID834        3       5.2 +j    8.4        9.8       0.5258
  TERMINAL TOTAL  .    15.0 +j      8.0       17.0       0.8824

ELEMENT = "Load.D858_834C"
MID834        3       8.5 +j   -0.3        8.6      -0.9994
MID834        1       4.5 +j    7.3        8.6       0.5206
  TERMINAL TOTAL  .    13.0 +j      7.0       14.8       0.8805

ELEMENT = "Load.D834_860A"
MID860        1      11.0 +j   -0.5       11.0      -0.9988
MID860        2       6.2 +j    9.1       11.0       0.5589
  TERMINAL TOTAL  .    17.2 +j      8.6       19.2       0.8944

ELEMENT = "Load.D834_860B"
MID860        2      13.6 +j   -0.9       13.7      -0.9979
MID860        3       7.5 +j   11.4       13.7       0.5481
  TERMINAL TOTAL  .    21.1 +j     10.6       23.6       0.8944

ELEMENT = "Load.D834_860C"
MID860        3      75.0 +j   -4.9       75.2      -0.9978
MID860        1      41.0 +j   63.0       75.2       0.5459
  TERMINAL TOTAL  .   116.1 +j     58.0      129.8       0.8944

ELEMENT = "Load.D860_836A"
MID836        1      19.2 +j   -1.0       19.3      -0.9988
MID836        2      10.8 +j   16.0       19.2       0.5589
  TERMINAL TOTAL  .    30.0 +j     15.0       33.5       0.8944

ELEMENT = "Load.D860_836B"
MID836        2       6.7 +j    0.1        6.7       0.9999
MID836        3       3.3 +j    5.9        6.8       0.4824
  TERMINAL TOTAL  .    10.0 +j      6.0       11.7       0.8575

ELEMENT = "Load.D860_836C"
MID836        3      27.4 +j   -1.3       27.5      -0.9989
MID836        1      14.6 +j   23.3       27.5       0.5300
  TERMINAL TOTAL  .    42.0 +j     22.0       47.4       0.8858

ELEMENT = "Load.D836_840A"
MID840        1      12.0 +j   -0.6       12.0      -0.9988
MID840        2       6.7 +j    9.9       12.0       0.5589
  TERMINAL TOTAL  .    18.6 +j      9.3       20.8       0.8944

ELEMENT = "Load.D836_840B"
MID840        2      14.6 +j   -0.9       14.6      -0.9979
MID840        3       8.0 +j   12.2       14.6       0.5482
  TERMINAL TOTAL  .    22.6 +j     11.3       25.3       0.8944

ELEMENT = "Load.D862_838B"
MID838        2      28.0 +j   14.0       31.3       0.8944
MID838        0       0.0 +j    0.0        0.0       1.0000
  TERMINAL TOTAL  .    28.0 +j     14.0       31.3       0.8944

ELEMENT = "Load.D842_844A"
MID844        1       9.0 +j    5.0       10.3       0.8742
MID844        0       0.0 +j    0.0        0.0       1.0000
  TERMINAL TOTAL  .     9.0 +j      5.0       10.3       0.8742

ELEMENT = "Load.D844_846B"
MID846        2      25.0 +j   12.0       27.7       0.9015
MID846        0       0.0 +j    0.0        0.0       1.0000
  TERMINAL TOTAL  .    25.0 +j     12.0       27.7       0.9015

ELEMENT = "Load.D844_846C"
MID846        3      20.0 +j   11.0       22.8       0.8762
MID846        0       0.0 +j    0.0        0.0       1.0000
  TERMINAL TOTAL  .    20.0 +j     11.0       22.8       0.8762

ELEMENT = "Load.D846_848B"
MID848        2      23.0 +j   11.0       25.5       0.9021
MID848        0       0.0 +j    0.0        0.0       1.0000
  TERMINAL TOTAL  .    23.0 +j     11.0       25.5       0.9021


Total Circuit Losses =  273.0 +j   35.5
